<?xml version="1.0"?>
<routes>
<vType id="nonPlatoon" vClass="passenger" length="5" maxSpeed="45" speedDev="0.0" color="0,0.67,0">
      <param key="vehroute.output.sorted" value="true"/>
</vType>
<route id="route0" edges="hw0"/>
<flow id="type2" color="1,1,0"  begin="0" end= "100" vehsPerHour="3600" type="nonPlatoon" route="route0" departLane="0"/>
<flow id="type3" color="1,1,0"  begin="0" end= "50" vehsPerHour="7200" type="nonPlatoon" route="route0" departLane="2"/>
</routes>