<?xml version="1.0"?>
<routes>
<vType id="nonPlatoon" vClass="passenger" length="5" maxSpeed="60" speedDev="0.0" color="0,0.67,0">
      <param key="vehroute.output.sorted" value="true"/>
</vType>
    <vType id="platoonLeader" vClass="passenger" length="5" maxSpeed="10" speedDev="0.0" color="1,0,0">
      <param key="vehroute.output.sorted" value="true"/>
   </vType>
    <vType id="laneLeader" vClass="passenger" length="5" maxSpeed="10" speedDev="0.0" color="0,1,0">
      <param key="vehroute.output.sorted" value="true"/>
   </vType>
    <vType id="member" vClass="passenger" length="5" maxSpeed="10" speedDev="0.0" color="0,0,1">
      <param key="vehroute.output.sorted" value="true"/>
   </vType>
<route id="route0" edges="hw0"/>
<vehicle id="pl" type="platoonLeader" route="route0" depart="3" departLane="0" departSpeed="max"/>
<vehicle id="ll" type="laneLeader" route="route0" depart="3" departLane="1" departSpeed="max"/>
<vehicle id="m1" type="member" route="route0" depart="5" departLane="0" departSpeed="max"/>
<vehicle id="m4" type="member" route="route0" depart="5" departLane="1" departSpeed="max"/>
<vehicle id="m2" type="member" route="route0" depart="7" departLane="0" departSpeed="max"/>
<vehicle id="m5" type="member" route="route0" depart="7" departLane="1" departSpeed="max"/>

</routes>