<?xml version="1.0"?>
<routes>
<vType id="nonPlatoon" vClass="passenger" length="5" maxSpeed="5" speedDev="0.0" color="1,1,1">
      <param key="vehroute.output.sorted" value="true"/>
</vType>
    <vType id="platoonLeader" vClass="passenger" length="5" maxSpeed="5" speedDev="0.0" color="1,0,0">
      <param key="vehroute.output.sorted" value="true"/>
   </vType>
    <vType id="laneLeader" vClass="passenger" length="5" maxSpeed="5" speedDev="0.0" color="0,1,0">
      <param key="vehroute.output.sorted" value="true"/>
   </vType>
    <vType id="member" vClass="passenger" length="5" maxSpeed="5" speedDev="0.0" color="0,0,1">
      <param key="vehroute.output.sorted" value="true"/>
   </vType>
<route id="route0" edges="hw0"/>

<vehicle id="pl" type="platoonLeader" route="route0" depart="7" departLane="2" departSpeed="max"/>
<vehicle id="ll" type="laneLeader" route="route0" depart="7" departLane="3" departSpeed="max"/>
<vehicle id="m1" type="member" route="route0" depart="9" departLane="2" departSpeed="max"/>
<vehicle id="m4" type="member" route="route0" depart="9" departLane="3" departSpeed="max"/>
<vehicle id="m2" type="member" route="route0" depart="11" departLane="2" departSpeed="max"/>
<vehicle id="m5" type="member" route="route0" depart="11" departLane="3" departSpeed="max"/>

</routes>

