<?xml version="1.0"?>
<routes>
<vType id="nonPlatoon" vClass="passenger" length="5" maxSpeed="8" speedDev="0.0" color="1,1,1">
      <param key="vehroute.output.sorted" value="true"/>
</vType>
    <vType id="platoonLeader" vClass="passenger" length="5" maxSpeed="4" speedDev="0.0" color="1,0,0" lcSpeedGain="0" lcKeepRight="0" lcCooperative="0">
      <param key="vehroute.output.sorted" value="true"/>
   </vType>
    <vType id="laneLeader" vClass="passenger" length="5" maxSpeed="8" speedDev="0.0" color="0,1,0" lcSpeedGain="0" lcKeepRight="0" lcCooperative="0">
      <param key="vehroute.output.sorted" value="true"/>
   </vType>
    <vType id="member" vClass="passenger" length="5" maxSpeed="5" speedDev="0.0" color="0,0,1">
      <param key="vehroute.output.sorted" value="true"/>
   </vType>
<route id="route0" edges="hw0"/>

<!--
<vehicle id="nonplatoon" type="nonPlatoon" route="route0" depart="0" departLane="2" departSpeed="max"/>
-->
<flow id="flow_lane0" color="1,1,0" begin="0" end="30" number="40" type="platoonLeader" departLane="0" route="route0">
</flow>
<flow id="flow_lane1" color="1,1,0" begin="0" end="30" number="40" type="platoonLeader" departLane="1" route="route0">
</flow>
<flow id="flow_lane2" color="1,1,0" begin="0" end="30" number="40" type="platoonLeader" departLane="2" route="route0">
</flow>
<flow id="flow_lane3" color="1,1,0" begin="0" end="30" number="40" type="platoonLeader" departLane="3" route="route0">
</flow>
<flow id="flow_lane4" color="1,1,0" begin="0" end="30" number="40" type="platoonLeader" departLane="4" route="route0">
</flow>
<flow id="flow_lane5" color="1,1,0" begin="0" end="30" number="40" type="platoonLeader" departLane="5" route="route0">
</flow>
</routes>

