<?xml version="1.0"?>
<routes>
    <vType id="nonPlatoon" vClass="passenger" length="5" maxSpeed="5" speedDev="0.0" color="1,1,1">
      <param key="vehroute.output.sorted" value="true"/>
</vType>
    <vType id="platoonLeader" vClass="passenger" length="5" maxSpeed="8" speedDev="0.0" color="1,0,0" lcSpeedGain="0" lcKeepRight="0" lcCooperative="0">
      <param key="vehroute.output.sorted" value="true"/>
   </vType>
    <vType id="laneLeader" vClass="passenger" length="5" maxSpeed="8" speedDev="0.0" color="0,1,0" lcSpeedGain="0" lcKeepRight="0" lcCooperative="0">
      <param key="vehroute.output.sorted" value="true"/>
   </vType>
    <vType id="member" vClass="passenger" length="5" maxSpeed="8" speedDev="0.0" color="0,0,1" lcSpeedGain="0" lcKeepRight="0" lcCooperative="0">
      <param key="vehroute.output.sorted" value="true"/>
   </vType>
    <route id="route0" edges="hw0"/>
    <vehicle id="pl_a1" type="platoonLeader" route="route0" depart="0" departLane="0" departSpeed="max"/>
    <vehicle id="ll_a1" type="laneLeader" route="route0" depart="0" departLane="1" departSpeed="max"/>
    <vehicle id="pl_c1" type="platoonLeader" route="route0" depart="0" departLane="4" departSpeed="max"/>
    <vehicle id="ll_c1" type="laneLeader" route="route0" depart="0" departLane="5" departSpeed="max"/>
    <vehicle id="m1_a1" type="member" route="route0" depart="2" departLane="0" departSpeed="max"/>
    <vehicle id="m3_a1" type="member" route="route0" depart="2" departLane="1" departSpeed="max"/>
    <vehicle id="m1_c1" type="member" route="route0" depart="2" departLane="4" departSpeed="max"/>
    <vehicle id="m3_c1" type="member" route="route0" depart="2" departLane="5" departSpeed="max"/>
    <vehicle id="m2_a1" type="member" route="route0" depart="4" departLane="0" departSpeed="max"/>
    <vehicle id="m4_a1" type="member" route="route0" depart="4" departLane="1" departSpeed="max"/>
    <vehicle id="m2_c1" type="member" route="route0" depart="4" departLane="4" departSpeed="max"/>
    <vehicle id="m4_c1" type="member" route="route0" depart="4" departLane="5" departSpeed="max"/>
    <vehicle id="pl_b1" type="platoonLeader" route="route0" depart="5" departLane="2" departSpeed="max"/>
    <vehicle id="ll_b1" type="laneLeader" route="route0" depart="5" departLane="3" departSpeed="max"/>
    <vehicle id="m1_b1" type="member" route="route0" depart="7" departLane="2" departSpeed="max"/>
    <vehicle id="m3_b1" type="member" route="route0" depart="7" departLane="3" departSpeed="max"/>
    <vehicle id="m2_b1" type="member" route="route0" depart="9" departLane="2" departSpeed="max"/>
    <vehicle id="m4_b1" type="member" route="route0" depart="9" departLane="3" departSpeed="max"/>
    <vehicle id="pl_a2" type="platoonLeader" route="route0" depart="10" departLane="0" departSpeed="max"/>
    <vehicle id="ll_a2" type="laneLeader" route="route0" depart="10" departLane="1" departSpeed="max"/>
    <vehicle id="pl_c2" type="platoonLeader" route="route0" depart="10" departLane="4" departSpeed="max"/>
    <vehicle id="ll_c2" type="laneLeader" route="route0" depart="10" departLane="5" departSpeed="max"/>
    <vehicle id="m1_a2" type="member" route="route0" depart="12" departLane="0" departSpeed="max"/>
    <vehicle id="m3_a2" type="member" route="route0" depart="12" departLane="1" departSpeed="max"/>
    <vehicle id="m1_c2" type="member" route="route0" depart="12" departLane="4" departSpeed="max"/>
    <vehicle id="m3_c2" type="member" route="route0" depart="12" departLane="5" departSpeed="max"/>
    <vehicle id="m2_a2" type="member" route="route0" depart="14" departLane="0" departSpeed="max"/>
    <vehicle id="m4_a2" type="member" route="route0" depart="14" departLane="1" departSpeed="max"/>
    <vehicle id="m2_c2" type="member" route="route0" depart="14" departLane="4" departSpeed="max"/>
    <vehicle id="m4_c2" type="member" route="route0" depart="14" departLane="5" departSpeed="max"/>
    <vehicle id="pl_b2" type="platoonLeader" route="route0" depart="15" departLane="2" departSpeed="max"/>
    <vehicle id="ll_b2" type="laneLeader" route="route0" depart="15" departLane="3" departSpeed="max"/>
    <vehicle id="m1_b2" type="member" route="route0" depart="17" departLane="2" departSpeed="max"/>
    <vehicle id="m3_b2" type="member" route="route0" depart="17" departLane="3" departSpeed="max"/>
    <vehicle id="m2_b2" type="member" route="route0" depart="19" departLane="2" departSpeed="max"/>
    <vehicle id="m4_b2" type="member" route="route0" depart="19" departLane="3" departSpeed="max"/>
    <vehicle id="pl_a3" type="platoonLeader" route="route0" depart="20" departLane="0" departSpeed="max"/>
    <vehicle id="ll_a3" type="laneLeader" route="route0" depart="20" departLane="1" departSpeed="max"/>
    <vehicle id="pl_c3" type="platoonLeader" route="route0" depart="20" departLane="4" departSpeed="max"/>
    <vehicle id="ll_c3" type="laneLeader" route="route0" depart="20" departLane="5" departSpeed="max"/>
    <vehicle id="m1_a3" type="member" route="route0" depart="22" departLane="0" departSpeed="max"/>
    <vehicle id="m3_a3" type="member" route="route0" depart="22" departLane="1" departSpeed="max"/>
    <vehicle id="m1_c3" type="member" route="route0" depart="22" departLane="4" departSpeed="max"/>
    <vehicle id="m3_c3" type="member" route="route0" depart="22" departLane="5" departSpeed="max"/>
    <vehicle id="m2_a3" type="member" route="route0" depart="24" departLane="0" departSpeed="max"/>
    <vehicle id="m4_a3" type="member" route="route0" depart="24" departLane="1" departSpeed="max"/>
    <vehicle id="m2_c3" type="member" route="route0" depart="24" departLane="4" departSpeed="max"/>
    <vehicle id="m4_c3" type="member" route="route0" depart="24" departLane="5" departSpeed="max"/>
    <vehicle id="pl_b3" type="platoonLeader" route="route0" depart="25" departLane="2" departSpeed="max"/>
    <vehicle id="ll_b3" type="laneLeader" route="route0" depart="25" departLane="3" departSpeed="max"/>
    <vehicle id="m1_b3" type="member" route="route0" depart="27" departLane="2" departSpeed="max"/>
    <vehicle id="m3_b3" type="member" route="route0" depart="27" departLane="3" departSpeed="max"/>
    <vehicle id="m2_b3" type="member" route="route0" depart="29" departLane="2" departSpeed="max"/>
    <vehicle id="m4_b3" type="member" route="route0" depart="29" departLane="3" departSpeed="max"/>
    <vehicle id="pl_a4" type="platoonLeader" route="route0" depart="30" departLane="0" departSpeed="max"/>
    <vehicle id="ll_a4" type="laneLeader" route="route0" depart="30" departLane="1" departSpeed="max"/>
    <vehicle id="pl_c4" type="platoonLeader" route="route0" depart="30" departLane="4" departSpeed="max"/>
    <vehicle id="ll_c4" type="laneLeader" route="route0" depart="30" departLane="5" departSpeed="max"/>
    <vehicle id="m1_a4" type="member" route="route0" depart="32" departLane="0" departSpeed="max"/>
    <vehicle id="m3_a4" type="member" route="route0" depart="32" departLane="1" departSpeed="max"/>
    <vehicle id="m1_c4" type="member" route="route0" depart="32" departLane="4" departSpeed="max"/>
    <vehicle id="m3_c4" type="member" route="route0" depart="32" departLane="5" departSpeed="max"/>
    <vehicle id="m2_a4" type="member" route="route0" depart="34" departLane="0" departSpeed="max"/>
    <vehicle id="m4_a4" type="member" route="route0" depart="34" departLane="1" departSpeed="max"/>
    <vehicle id="m2_c4" type="member" route="route0" depart="34" departLane="4" departSpeed="max"/>
    <vehicle id="m4_c4" type="member" route="route0" depart="34" departLane="5" departSpeed="max"/>
    <vehicle id="pl_b4" type="platoonLeader" route="route0" depart="35" departLane="2" departSpeed="max"/>
    <vehicle id="ll_b4" type="laneLeader" route="route0" depart="35" departLane="3" departSpeed="max"/>
    <vehicle id="m1_b4" type="member" route="route0" depart="37" departLane="2" departSpeed="max"/>
    <vehicle id="m3_b4" type="member" route="route0" depart="37" departLane="3" departSpeed="max"/>
    <vehicle id="m2_b4" type="member" route="route0" depart="39" departLane="2" departSpeed="max"/>
    <vehicle id="m4_b4" type="member" route="route0" depart="39" departLane="3" departSpeed="max"/>
    <vehicle id="pl_a5" type="platoonLeader" route="route0" depart="40" departLane="0" departSpeed="max"/>
    <vehicle id="ll_a5" type="laneLeader" route="route0" depart="40" departLane="1" departSpeed="max"/>
    <vehicle id="pl_c5" type="platoonLeader" route="route0" depart="40" departLane="4" departSpeed="max"/>
    <vehicle id="ll_c5" type="laneLeader" route="route0" depart="40" departLane="5" departSpeed="max"/>
    <vehicle id="m1_a5" type="member" route="route0" depart="42" departLane="0" departSpeed="max"/>
    <vehicle id="m3_a5" type="member" route="route0" depart="42" departLane="1" departSpeed="max"/>
    <vehicle id="m1_c5" type="member" route="route0" depart="42" departLane="4" departSpeed="max"/>
    <vehicle id="m3_c5" type="member" route="route0" depart="42" departLane="5" departSpeed="max"/>
    <vehicle id="m2_a5" type="member" route="route0" depart="44" departLane="0" departSpeed="max"/>
    <vehicle id="m4_a5" type="member" route="route0" depart="44" departLane="1" departSpeed="max"/>
    <vehicle id="m2_c5" type="member" route="route0" depart="44" departLane="4" departSpeed="max"/>
    <vehicle id="m4_c5" type="member" route="route0" depart="44" departLane="5" departSpeed="max"/>
    <vehicle id="pl_b5" type="platoonLeader" route="route0" depart="45" departLane="2" departSpeed="max"/>
    <vehicle id="ll_b5" type="laneLeader" route="route0" depart="45" departLane="3" departSpeed="max"/>
    <vehicle id="m1_b5" type="member" route="route0" depart="47" departLane="2" departSpeed="max"/>
    <vehicle id="m3_b5" type="member" route="route0" depart="47" departLane="3" departSpeed="max"/>
    <vehicle id="m2_b5" type="member" route="route0" depart="49" departLane="2" departSpeed="max"/>
    <vehicle id="m4_b5" type="member" route="route0" depart="49" departLane="3" departSpeed="max"/>
    <vehicle id="pl_a6" type="platoonLeader" route="route0" depart="50" departLane="0" departSpeed="max"/>
    <vehicle id="ll_a6" type="laneLeader" route="route0" depart="50" departLane="1" departSpeed="max"/>
    <vehicle id="pl_c6" type="platoonLeader" route="route0" depart="50" departLane="4" departSpeed="max"/>
    <vehicle id="ll_c6" type="laneLeader" route="route0" depart="50" departLane="5" departSpeed="max"/>
    <vehicle id="m1_a6" type="member" route="route0" depart="52" departLane="0" departSpeed="max"/>
    <vehicle id="m3_a6" type="member" route="route0" depart="52" departLane="1" departSpeed="max"/>
    <vehicle id="m1_c6" type="member" route="route0" depart="52" departLane="4" departSpeed="max"/>
    <vehicle id="m3_c6" type="member" route="route0" depart="52" departLane="5" departSpeed="max"/>
    <vehicle id="m2_a6" type="member" route="route0" depart="54" departLane="0" departSpeed="max"/>
    <vehicle id="m4_a6" type="member" route="route0" depart="54" departLane="1" departSpeed="max"/>
    <vehicle id="m2_c6" type="member" route="route0" depart="54" departLane="4" departSpeed="max"/>
    <vehicle id="m4_c6" type="member" route="route0" depart="54" departLane="5" departSpeed="max"/>
    <vehicle id="pl_b6" type="platoonLeader" route="route0" depart="55" departLane="2" departSpeed="max"/>
    <vehicle id="ll_b6" type="laneLeader" route="route0" depart="55" departLane="3" departSpeed="max"/>
    <vehicle id="m1_b6" type="member" route="route0" depart="57" departLane="2" departSpeed="max"/>
    <vehicle id="m3_b6" type="member" route="route0" depart="57" departLane="3" departSpeed="max"/>
    <vehicle id="m2_b6" type="member" route="route0" depart="59" departLane="2" departSpeed="max"/>
    <vehicle id="m4_b6" type="member" route="route0" depart="59" departLane="3" departSpeed="max"/>
    <vehicle id="pl_a7" type="platoonLeader" route="route0" depart="60" departLane="0" departSpeed="max"/>
    <vehicle id="ll_a7" type="laneLeader" route="route0" depart="60" departLane="1" departSpeed="max"/>
    <vehicle id="pl_c7" type="platoonLeader" route="route0" depart="60" departLane="4" departSpeed="max"/>
    <vehicle id="ll_c7" type="laneLeader" route="route0" depart="60" departLane="5" departSpeed="max"/>
    <vehicle id="m1_a7" type="member" route="route0" depart="62" departLane="0" departSpeed="max"/>
    <vehicle id="m3_a7" type="member" route="route0" depart="62" departLane="1" departSpeed="max"/>
    <vehicle id="m1_c7" type="member" route="route0" depart="62" departLane="4" departSpeed="max"/>
    <vehicle id="m3_c7" type="member" route="route0" depart="62" departLane="5" departSpeed="max"/>
    <vehicle id="m2_a7" type="member" route="route0" depart="64" departLane="0" departSpeed="max"/>
    <vehicle id="m4_a7" type="member" route="route0" depart="64" departLane="1" departSpeed="max"/>
    <vehicle id="m2_c7" type="member" route="route0" depart="64" departLane="4" departSpeed="max"/>
    <vehicle id="m4_c7" type="member" route="route0" depart="64" departLane="5" departSpeed="max"/>
    <vehicle id="pl_b7" type="platoonLeader" route="route0" depart="65" departLane="2" departSpeed="max"/>
    <vehicle id="ll_b7" type="laneLeader" route="route0" depart="65" departLane="3" departSpeed="max"/>
    <vehicle id="m1_b7" type="member" route="route0" depart="67" departLane="2" departSpeed="max"/>
    <vehicle id="m3_b7" type="member" route="route0" depart="67" departLane="3" departSpeed="max"/>
    <vehicle id="m2_b7" type="member" route="route0" depart="69" departLane="2" departSpeed="max"/>
    <vehicle id="m4_b7" type="member" route="route0" depart="69" departLane="3" departSpeed="max"/>
    <vehicle id="pl_a8" type="platoonLeader" route="route0" depart="70" departLane="0" departSpeed="max"/>
    <vehicle id="ll_a8" type="laneLeader" route="route0" depart="70" departLane="1" departSpeed="max"/>
    <vehicle id="pl_c8" type="platoonLeader" route="route0" depart="70" departLane="4" departSpeed="max"/>
    <vehicle id="ll_c8" type="laneLeader" route="route0" depart="70" departLane="5" departSpeed="max"/>
    <vehicle id="m1_a8" type="member" route="route0" depart="72" departLane="0" departSpeed="max"/>
    <vehicle id="m3_a8" type="member" route="route0" depart="72" departLane="1" departSpeed="max"/>
    <vehicle id="m1_c8" type="member" route="route0" depart="72" departLane="4" departSpeed="max"/>
    <vehicle id="m3_c8" type="member" route="route0" depart="72" departLane="5" departSpeed="max"/>
    <vehicle id="m2_a8" type="member" route="route0" depart="74" departLane="0" departSpeed="max"/>
    <vehicle id="m4_a8" type="member" route="route0" depart="74" departLane="1" departSpeed="max"/>
    <vehicle id="m2_c8" type="member" route="route0" depart="74" departLane="4" departSpeed="max"/>
    <vehicle id="m4_c8" type="member" route="route0" depart="74" departLane="5" departSpeed="max"/>
    <vehicle id="pl_b8" type="platoonLeader" route="route0" depart="75" departLane="2" departSpeed="max"/>
    <vehicle id="ll_b8" type="laneLeader" route="route0" depart="75" departLane="3" departSpeed="max"/>
    <vehicle id="m1_b8" type="member" route="route0" depart="77" departLane="2" departSpeed="max"/>
    <vehicle id="m3_b8" type="member" route="route0" depart="77" departLane="3" departSpeed="max"/>
    <vehicle id="m2_b8" type="member" route="route0" depart="79" departLane="2" departSpeed="max"/>
    <vehicle id="m4_b8" type="member" route="route0" depart="79" departLane="3" departSpeed="max"/>
    <vehicle id="pl_a9" type="platoonLeader" route="route0" depart="80" departLane="0" departSpeed="max"/>
    <vehicle id="ll_a9" type="laneLeader" route="route0" depart="80" departLane="1" departSpeed="max"/>
    <vehicle id="pl_c9" type="platoonLeader" route="route0" depart="80" departLane="4" departSpeed="max"/>
    <vehicle id="ll_c9" type="laneLeader" route="route0" depart="80" departLane="5" departSpeed="max"/>
    <vehicle id="m1_a9" type="member" route="route0" depart="82" departLane="0" departSpeed="max"/>
    <vehicle id="m3_a9" type="member" route="route0" depart="82" departLane="1" departSpeed="max"/>
    <vehicle id="m1_c9" type="member" route="route0" depart="82" departLane="4" departSpeed="max"/>
    <vehicle id="m3_c9" type="member" route="route0" depart="82" departLane="5" departSpeed="max"/>
    <vehicle id="m2_a9" type="member" route="route0" depart="84" departLane="0" departSpeed="max"/>
    <vehicle id="m4_a9" type="member" route="route0" depart="84" departLane="1" departSpeed="max"/>
    <vehicle id="m2_c9" type="member" route="route0" depart="84" departLane="4" departSpeed="max"/>
    <vehicle id="m4_c9" type="member" route="route0" depart="84" departLane="5" departSpeed="max"/>
    <vehicle id="pl_b9" type="platoonLeader" route="route0" depart="85" departLane="2" departSpeed="max"/>
    <vehicle id="ll_b9" type="laneLeader" route="route0" depart="85" departLane="3" departSpeed="max"/>
    <vehicle id="m1_b9" type="member" route="route0" depart="87" departLane="2" departSpeed="max"/>
    <vehicle id="m3_b9" type="member" route="route0" depart="87" departLane="3" departSpeed="max"/>
    <vehicle id="m2_b9" type="member" route="route0" depart="89" departLane="2" departSpeed="max"/>
    <vehicle id="m4_b9" type="member" route="route0" depart="89" departLane="3" departSpeed="max"/>
    <vehicle id="pl_a10" type="platoonLeader" route="route0" depart="90" departLane="0" departSpeed="max"/>
    <vehicle id="ll_a10" type="laneLeader" route="route0" depart="90" departLane="1" departSpeed="max"/>
    <vehicle id="pl_c10" type="platoonLeader" route="route0" depart="90" departLane="4" departSpeed="max"/>
    <vehicle id="ll_c10" type="laneLeader" route="route0" depart="90" departLane="5" departSpeed="max"/>
    <vehicle id="m1_a10" type="member" route="route0" depart="92" departLane="0" departSpeed="max"/>
    <vehicle id="m3_a10" type="member" route="route0" depart="92" departLane="1" departSpeed="max"/>
    <vehicle id="m1_c10" type="member" route="route0" depart="92" departLane="4" departSpeed="max"/>
    <vehicle id="m3_c10" type="member" route="route0" depart="92" departLane="5" departSpeed="max"/>
    <vehicle id="m2_a10" type="member" route="route0" depart="94" departLane="0" departSpeed="max"/>
    <vehicle id="m4_a10" type="member" route="route0" depart="94" departLane="1" departSpeed="max"/>
    <vehicle id="m2_c10" type="member" route="route0" depart="94" departLane="4" departSpeed="max"/>
    <vehicle id="m4_c10" type="member" route="route0" depart="94" departLane="5" departSpeed="max"/>
</routes>
