<?xml version="1.0"?>
<routes>
    <vType id="nonPlatoon" vClass="passenger" length="5" maxSpeed="5" speedDev="0.0" color="1,1,1">
      <param key="vehroute.output.sorted" value="true"/>
</vType>
    <vType id="platoonLeader" vClass="passenger" length="5" maxSpeed="5" speedDev="0.0" color="1,0,0" lcSpeedGain="0" lcKeepRight="0" lcCooperative="0">
      <param key="vehroute.output.sorted" value="true"/>
   </vType>
    <vType id="laneLeader" vClass="passenger" length="5" maxSpeed="5" speedDev="0.0" color="0,1,0" lcSpeedGain="0" lcKeepRight="0" lcCooperative="0">
      <param key="vehroute.output.sorted" value="true"/>
   </vType>
    <vType id="member" vClass="passenger" length="5" maxSpeed="5" speedDev="0.0" color="0,0,1" lcSpeedGain="0" lcKeepRight="0" lcCooperative="0">
      <param key="vehroute.output.sorted" value="true"/>
   </vType>
    <route id="route0" edges="hw0"/>
    <vehicle id="pl_a1" type="platoonLeader" route="route0" depart="0" departLane="0" departSpeed="max"/>
    <vehicle id="ll_a1" type="laneLeader" route="route0" depart="0" departLane="1" departSpeed="max"/>
    <vehicle id="pl_c1" type="platoonLeader" route="route0" depart="0" departLane="4" departSpeed="max"/>
    <vehicle id="ll_c1" type="laneLeader" route="route0" depart="0" departLane="5" departSpeed="max"/>
    <vehicle id="m1_a1" type="member" route="route0" depart="2" departLane="0" departSpeed="max"/>
    <vehicle id="m3_a1" type="member" route="route0" depart="2" departLane="1" departSpeed="max"/>
    <vehicle id="m1_c1" type="member" route="route0" depart="2" departLane="4" departSpeed="max"/>
    <vehicle id="m3_c1" type="member" route="route0" depart="2" departLane="5" departSpeed="max"/>
    <vehicle id="m2_a1" type="member" route="route0" depart="4" departLane="0" departSpeed="max"/>
    <vehicle id="m4_a1" type="member" route="route0" depart="4" departLane="1" departSpeed="max"/>
    <vehicle id="m2_c1" type="member" route="route0" depart="4" departLane="4" departSpeed="max"/>
    <vehicle id="m4_c1" type="member" route="route0" depart="4" departLane="5" departSpeed="max"/>
    <vehicle id="pl_b1" type="platoonLeader" route="route0" depart="13" departLane="2" departSpeed="max"/>
    <vehicle id="ll_b1" type="laneLeader" route="route0" depart="13" departLane="3" departSpeed="max"/>
    <vehicle id="m1_b1" type="member" route="route0" depart="15" departLane="2" departSpeed="max"/>
    <vehicle id="m3_b1" type="member" route="route0" depart="15" departLane="3" departSpeed="max"/>
    <vehicle id="m2_b1" type="member" route="route0" depart="17" departLane="2" departSpeed="max"/>
    <vehicle id="m4_b1" type="member" route="route0" depart="17" departLane="3" departSpeed="max"/>
    <vehicle id="pl_a2" type="platoonLeader" route="route0" depart="26" departLane="0" departSpeed="max"/>
    <vehicle id="ll_a2" type="laneLeader" route="route0" depart="26" departLane="1" departSpeed="max"/>
    <vehicle id="pl_c2" type="platoonLeader" route="route0" depart="26" departLane="4" departSpeed="max"/>
    <vehicle id="ll_c2" type="laneLeader" route="route0" depart="26" departLane="5" departSpeed="max"/>
    <vehicle id="m1_a2" type="member" route="route0" depart="28" departLane="0" departSpeed="max"/>
    <vehicle id="m3_a2" type="member" route="route0" depart="28" departLane="1" departSpeed="max"/>
    <vehicle id="m1_c2" type="member" route="route0" depart="28" departLane="4" departSpeed="max"/>
    <vehicle id="m3_c2" type="member" route="route0" depart="28" departLane="5" departSpeed="max"/>
    <vehicle id="m2_a2" type="member" route="route0" depart="30" departLane="0" departSpeed="max"/>
    <vehicle id="m4_a2" type="member" route="route0" depart="30" departLane="1" departSpeed="max"/>
    <vehicle id="m2_c2" type="member" route="route0" depart="30" departLane="4" departSpeed="max"/>
    <vehicle id="m4_c2" type="member" route="route0" depart="30" departLane="5" departSpeed="max"/>
    <vehicle id="pl_b2" type="platoonLeader" route="route0" depart="39" departLane="2" departSpeed="max"/>
    <vehicle id="ll_b2" type="laneLeader" route="route0" depart="39" departLane="3" departSpeed="max"/>
    <vehicle id="m1_b2" type="member" route="route0" depart="41" departLane="2" departSpeed="max"/>
    <vehicle id="m3_b2" type="member" route="route0" depart="41" departLane="3" departSpeed="max"/>
    <vehicle id="m2_b2" type="member" route="route0" depart="43" departLane="2" departSpeed="max"/>
    <vehicle id="m4_b2" type="member" route="route0" depart="43" departLane="3" departSpeed="max"/>
    <vehicle id="pl_a3" type="platoonLeader" route="route0" depart="52" departLane="0" departSpeed="max"/>
    <vehicle id="ll_a3" type="laneLeader" route="route0" depart="52" departLane="1" departSpeed="max"/>
    <vehicle id="pl_c3" type="platoonLeader" route="route0" depart="52" departLane="4" departSpeed="max"/>
    <vehicle id="ll_c3" type="laneLeader" route="route0" depart="52" departLane="5" departSpeed="max"/>
    <vehicle id="m1_a3" type="member" route="route0" depart="54" departLane="0" departSpeed="max"/>
    <vehicle id="m3_a3" type="member" route="route0" depart="54" departLane="1" departSpeed="max"/>
    <vehicle id="m1_c3" type="member" route="route0" depart="54" departLane="4" departSpeed="max"/>
    <vehicle id="m3_c3" type="member" route="route0" depart="54" departLane="5" departSpeed="max"/>
    <vehicle id="m2_a3" type="member" route="route0" depart="56" departLane="0" departSpeed="max"/>
    <vehicle id="m4_a3" type="member" route="route0" depart="56" departLane="1" departSpeed="max"/>
    <vehicle id="m2_c3" type="member" route="route0" depart="56" departLane="4" departSpeed="max"/>
    <vehicle id="m4_c3" type="member" route="route0" depart="56" departLane="5" departSpeed="max"/>
    <vehicle id="pl_b3" type="platoonLeader" route="route0" depart="65" departLane="2" departSpeed="max"/>
    <vehicle id="ll_b3" type="laneLeader" route="route0" depart="65" departLane="3" departSpeed="max"/>
    <vehicle id="m1_b3" type="member" route="route0" depart="67" departLane="2" departSpeed="max"/>
    <vehicle id="m3_b3" type="member" route="route0" depart="67" departLane="3" departSpeed="max"/>
    <vehicle id="m2_b3" type="member" route="route0" depart="69" departLane="2" departSpeed="max"/>
    <vehicle id="m4_b3" type="member" route="route0" depart="69" departLane="3" departSpeed="max"/>
    <vehicle id="pl_a4" type="platoonLeader" route="route0" depart="78" departLane="0" departSpeed="max"/>
    <vehicle id="ll_a4" type="laneLeader" route="route0" depart="78" departLane="1" departSpeed="max"/>
    <vehicle id="pl_c4" type="platoonLeader" route="route0" depart="78" departLane="4" departSpeed="max"/>
    <vehicle id="ll_c4" type="laneLeader" route="route0" depart="78" departLane="5" departSpeed="max"/>
    <vehicle id="m1_a4" type="member" route="route0" depart="80" departLane="0" departSpeed="max"/>
    <vehicle id="m3_a4" type="member" route="route0" depart="80" departLane="1" departSpeed="max"/>
    <vehicle id="m1_c4" type="member" route="route0" depart="80" departLane="4" departSpeed="max"/>
    <vehicle id="m3_c4" type="member" route="route0" depart="80" departLane="5" departSpeed="max"/>
    <vehicle id="m2_a4" type="member" route="route0" depart="82" departLane="0" departSpeed="max"/>
    <vehicle id="m4_a4" type="member" route="route0" depart="82" departLane="1" departSpeed="max"/>
    <vehicle id="m2_c4" type="member" route="route0" depart="82" departLane="4" departSpeed="max"/>
    <vehicle id="m4_c4" type="member" route="route0" depart="82" departLane="5" departSpeed="max"/>
    <vehicle id="pl_b4" type="platoonLeader" route="route0" depart="91" departLane="2" departSpeed="max"/>
    <vehicle id="ll_b4" type="laneLeader" route="route0" depart="91" departLane="3" departSpeed="max"/>
    <vehicle id="m1_b4" type="member" route="route0" depart="93" departLane="2" departSpeed="max"/>
    <vehicle id="m3_b4" type="member" route="route0" depart="93" departLane="3" departSpeed="max"/>
    <vehicle id="m2_b4" type="member" route="route0" depart="95" departLane="2" departSpeed="max"/>
    <vehicle id="m4_b4" type="member" route="route0" depart="95" departLane="3" departSpeed="max"/>
    <vehicle id="pl_a5" type="platoonLeader" route="route0" depart="104" departLane="0" departSpeed="max"/>
    <vehicle id="ll_a5" type="laneLeader" route="route0" depart="104" departLane="1" departSpeed="max"/>
    <vehicle id="pl_c5" type="platoonLeader" route="route0" depart="104" departLane="4" departSpeed="max"/>
    <vehicle id="ll_c5" type="laneLeader" route="route0" depart="104" departLane="5" departSpeed="max"/>
    <vehicle id="m1_a5" type="member" route="route0" depart="106" departLane="0" departSpeed="max"/>
    <vehicle id="m3_a5" type="member" route="route0" depart="106" departLane="1" departSpeed="max"/>
    <vehicle id="m1_c5" type="member" route="route0" depart="106" departLane="4" departSpeed="max"/>
    <vehicle id="m3_c5" type="member" route="route0" depart="106" departLane="5" departSpeed="max"/>
    <vehicle id="m2_a5" type="member" route="route0" depart="108" departLane="0" departSpeed="max"/>
    <vehicle id="m4_a5" type="member" route="route0" depart="108" departLane="1" departSpeed="max"/>
    <vehicle id="m2_c5" type="member" route="route0" depart="108" departLane="4" departSpeed="max"/>
    <vehicle id="m4_c5" type="member" route="route0" depart="108" departLane="5" departSpeed="max"/>
    <vehicle id="pl_b5" type="platoonLeader" route="route0" depart="117" departLane="2" departSpeed="max"/>
    <vehicle id="ll_b5" type="laneLeader" route="route0" depart="117" departLane="3" departSpeed="max"/>
    <vehicle id="m1_b5" type="member" route="route0" depart="119" departLane="2" departSpeed="max"/>
    <vehicle id="m3_b5" type="member" route="route0" depart="119" departLane="3" departSpeed="max"/>
    <vehicle id="m2_b5" type="member" route="route0" depart="121" departLane="2" departSpeed="max"/>
    <vehicle id="m4_b5" type="member" route="route0" depart="121" departLane="3" departSpeed="max"/>
    <vehicle id="pl_a6" type="platoonLeader" route="route0" depart="130" departLane="0" departSpeed="max"/>
    <vehicle id="ll_a6" type="laneLeader" route="route0" depart="130" departLane="1" departSpeed="max"/>
    <vehicle id="pl_c6" type="platoonLeader" route="route0" depart="130" departLane="4" departSpeed="max"/>
    <vehicle id="ll_c6" type="laneLeader" route="route0" depart="130" departLane="5" departSpeed="max"/>
    <vehicle id="m1_a6" type="member" route="route0" depart="132" departLane="0" departSpeed="max"/>
    <vehicle id="m3_a6" type="member" route="route0" depart="132" departLane="1" departSpeed="max"/>
    <vehicle id="m1_c6" type="member" route="route0" depart="132" departLane="4" departSpeed="max"/>
    <vehicle id="m3_c6" type="member" route="route0" depart="132" departLane="5" departSpeed="max"/>
    <vehicle id="m2_a6" type="member" route="route0" depart="134" departLane="0" departSpeed="max"/>
    <vehicle id="m4_a6" type="member" route="route0" depart="134" departLane="1" departSpeed="max"/>
    <vehicle id="m2_c6" type="member" route="route0" depart="134" departLane="4" departSpeed="max"/>
    <vehicle id="m4_c6" type="member" route="route0" depart="134" departLane="5" departSpeed="max"/>
    <vehicle id="pl_b6" type="platoonLeader" route="route0" depart="143" departLane="2" departSpeed="max"/>
    <vehicle id="ll_b6" type="laneLeader" route="route0" depart="143" departLane="3" departSpeed="max"/>
    <vehicle id="m1_b6" type="member" route="route0" depart="145" departLane="2" departSpeed="max"/>
    <vehicle id="m3_b6" type="member" route="route0" depart="145" departLane="3" departSpeed="max"/>
    <vehicle id="m2_b6" type="member" route="route0" depart="147" departLane="2" departSpeed="max"/>
    <vehicle id="m4_b6" type="member" route="route0" depart="147" departLane="3" departSpeed="max"/>
    <vehicle id="pl_a7" type="platoonLeader" route="route0" depart="156" departLane="0" departSpeed="max"/>
    <vehicle id="ll_a7" type="laneLeader" route="route0" depart="156" departLane="1" departSpeed="max"/>
    <vehicle id="pl_c7" type="platoonLeader" route="route0" depart="156" departLane="4" departSpeed="max"/>
    <vehicle id="ll_c7" type="laneLeader" route="route0" depart="156" departLane="5" departSpeed="max"/>
    <vehicle id="m1_a7" type="member" route="route0" depart="158" departLane="0" departSpeed="max"/>
    <vehicle id="m3_a7" type="member" route="route0" depart="158" departLane="1" departSpeed="max"/>
    <vehicle id="m1_c7" type="member" route="route0" depart="158" departLane="4" departSpeed="max"/>
    <vehicle id="m3_c7" type="member" route="route0" depart="158" departLane="5" departSpeed="max"/>
    <vehicle id="m2_a7" type="member" route="route0" depart="160" departLane="0" departSpeed="max"/>
    <vehicle id="m4_a7" type="member" route="route0" depart="160" departLane="1" departSpeed="max"/>
    <vehicle id="m2_c7" type="member" route="route0" depart="160" departLane="4" departSpeed="max"/>
    <vehicle id="m4_c7" type="member" route="route0" depart="160" departLane="5" departSpeed="max"/>
    <vehicle id="pl_b7" type="platoonLeader" route="route0" depart="169" departLane="2" departSpeed="max"/>
    <vehicle id="ll_b7" type="laneLeader" route="route0" depart="169" departLane="3" departSpeed="max"/>
    <vehicle id="m1_b7" type="member" route="route0" depart="171" departLane="2" departSpeed="max"/>
    <vehicle id="m3_b7" type="member" route="route0" depart="171" departLane="3" departSpeed="max"/>
    <vehicle id="m2_b7" type="member" route="route0" depart="173" departLane="2" departSpeed="max"/>
    <vehicle id="m4_b7" type="member" route="route0" depart="173" departLane="3" departSpeed="max"/>
    <vehicle id="pl_a8" type="platoonLeader" route="route0" depart="182" departLane="0" departSpeed="max"/>
    <vehicle id="ll_a8" type="laneLeader" route="route0" depart="182" departLane="1" departSpeed="max"/>
    <vehicle id="pl_c8" type="platoonLeader" route="route0" depart="182" departLane="4" departSpeed="max"/>
    <vehicle id="ll_c8" type="laneLeader" route="route0" depart="182" departLane="5" departSpeed="max"/>
    <vehicle id="m1_a8" type="member" route="route0" depart="184" departLane="0" departSpeed="max"/>
    <vehicle id="m3_a8" type="member" route="route0" depart="184" departLane="1" departSpeed="max"/>
    <vehicle id="m1_c8" type="member" route="route0" depart="184" departLane="4" departSpeed="max"/>
    <vehicle id="m3_c8" type="member" route="route0" depart="184" departLane="5" departSpeed="max"/>
    <vehicle id="m2_a8" type="member" route="route0" depart="186" departLane="0" departSpeed="max"/>
    <vehicle id="m4_a8" type="member" route="route0" depart="186" departLane="1" departSpeed="max"/>
    <vehicle id="m2_c8" type="member" route="route0" depart="186" departLane="4" departSpeed="max"/>
    <vehicle id="m4_c8" type="member" route="route0" depart="186" departLane="5" departSpeed="max"/>
</routes>