<?xml version="1.0"?>
<routes>
<vType id="nonPlatoon" vClass="passenger" length="5" maxSpeed="60" speedDev="0.0" color="0,0.67,0">
      <param key="vehroute.output.sorted" value="true"/>
</vType>
 <vType id="member" vClass="passenger" length="5" maxSpeed="10" speedDev="0.0" color="0,0,1">
      <param key="vehroute.output.sorted" value="true"/>
   </vType>
<route id="route0" edges="hw0"/>

<vehicle id="m1" type="nonPlatoon" route="route0" depart="0" departLane="0" departSpeed="max"/>
<vehicle id="m2" type="member" route="route0" depart="2" departLane="3" departSpeed="max"/>

</routes>