<?xml version="1.0"?>
<routes>
    <vType id="nonPlatoon" vClass="passenger" length="5" maxSpeed="45" speedDev="0.0" color="0,0.67,0">
      <param key="vehroute.output.sorted" value="true"/>
   </vType>
    <vType id="platoonLeader" vClass="passenger" length="5" maxSpeed="40" speedDev="0.0" color="1,0,0">
      <param key="vehroute.output.sorted" value="true"/>
   </vType>
    <vType id="laneLeader" vClass="passenger" length="5" maxSpeed="40" speedDev="0.0" color="0,1,0">
      <param key="vehroute.output.sorted" value="true"/>
   </vType>
    <vType id="member" vClass="passenger" length="5" maxSpeed="40" speedDev="0.0" color="0,0,1">
      <param key="vehroute.output.sorted" value="true"/>
   </vType>
    <route id="route0" edges="hw0"/>
    <vehicle id="np0" type="nonPlatoon" route="route0" depart="0" departLane="0" departSpeed="max"/>
    <vehicle id="np1" type="nonPlatoon" route="route0" depart="0" departLane="1" departSpeed="max"/>
    <vehicle id="np2" type="nonPlatoon" route="route0" depart="0.2" departLane="2" departSpeed="max"/>
    <vehicle id="np3" type="nonPlatoon" route="route0" depart="1.2" departLane="2" departSpeed="max"/>
    <vehicle id="pl" type="platoonLeader" route="route0" depart="3" departLane="0" departSpeed="max"/>
    <vehicle id="ll" type="laneLeader" route="route0" depart="3" departLane="1" departSpeed="max"/>
    <vehicle id="m1" type="member" route="route0" depart="4" departLane="0" departSpeed="max"/>
    <vehicle id="m4" type="member" route="route0" depart="4" departLane="1" departSpeed="max"/>
    <vehicle id="m2" type="member" route="route0" depart="5" departLane="0" departSpeed="max"/>
    <vehicle id="m5" type="member" route="route0" depart="5" departLane="1" departSpeed="max"/>
    <vehicle id="np4" type="nonPlatoon" route="route0" depart="7" departLane="0" departSpeed="max"/>
    <vehicle id="np5" type="nonPlatoon" route="route0" depart="7" departLane="1" departSpeed="max"/>
    <vehicle id="np6" type="nonPlatoon" route="route0" depart="7" departLane="2" departSpeed="max"/>
    <vehicle id="np7" type="nonPlatoon" route="route0" depart="8" departLane="2" departSpeed="max"/>
</routes>
